/*--------------------------------*- C++ -*----------------------------------*\
| =========                 |                                                 |
| \\      /  F ield         | OpenFOAM: The Open Source CFD Toolbox           |
|  \\    /   O peration     | Version:  5                                     |
|   \\  /    A nd           | Web:      www.OpenFOAM.org                      |
|    \\/     M anipulation  |                                                 |
\*---------------------------------------------------------------------------*/
FoamFile
{
    version     2.0;
    format      ascii;
    class       dictionary;
    location    "system";
    object      controlDict;
}
// * * * * * * * * * * * * * * * * * * * * * * * * * * * * * * * * * * * * * //

application     MTO_TF;

startFrom       startTime;

startTime       0;

stopAt          endTime;

endTime         200;

deltaT          1;

writeControl    timeStep;

writeInterval   5;

purgeWrite      0;

writeFormat     ascii;

writePrecision  4;

writeCompression off;

timeFormat      general;

timePrecision   12;

runTimeModifiable true;
libs ( "libOpenFOAM.so" "libgroovyBC.so" ) ;
// ************************************************************************* //
